Definition: a measure of the depth of water taken with a sounding line
Synonyms: verb, change, sound, depth, a, measure, of, the, water, taken, with, line
Category: noun.attribute
