Definition: having volume or deepness
Example: sounding brass and a tinkling cymbal; the sounding cataract haunted me like a passion- Wordsworth
Synonyms: having, volume, or, deepness, brass, and, a, tinkling, cymbal, the, cataract, haunted, me, like, passion, -, Wordsworth
Category: adj.all
